data_POZHUI_ion_b
_audit_creation_date              2014-07-02
_audit_creation_method            'Materials Studio'
_symmetry_space_group_name_H-M    'IM-3M'
_symmetry_Int_Tables_number       229
_symmetry_cell_setting            cubic
loop_
_symmetry_equiv_pos_as_xyz
  x,y,z
  -x,-y,z
  -x,y,-z
  x,-y,-z
  z,x,y
  z,-x,-y
  -z,-x,y
  -z,x,-y
  y,z,x
  -y,z,-x
  y,-z,-x
  -y,-z,x
  y,x,-z
  -y,-x,-z
  y,-x,z
  -y,x,z
  x,z,-y
  -x,z,y
  -x,-z,-y
  x,-z,y
  z,y,-x
  z,-y,x
  -z,y,x
  -z,-y,-x
  -x,-y,-z
  x,y,-z
  x,-y,z
  -x,y,z
  -z,-x,-y
  -z,x,y
  z,x,-y
  z,-x,y
  -y,-z,-x
  y,-z,x
  -y,z,x
  y,z,-x
  -y,-x,z
  y,x,z
  -y,x,-z
  y,-x,-z
  -x,-z,y
  x,-z,-y
  x,z,y
  -x,z,-y
  -z,-y,x
  -z,y,-x
  z,-y,-x
  z,y,x
  x+1/2,y+1/2,z+1/2
  -x+1/2,-y+1/2,z+1/2
  -x+1/2,y+1/2,-z+1/2
  x+1/2,-y+1/2,-z+1/2
  z+1/2,x+1/2,y+1/2
  z+1/2,-x+1/2,-y+1/2
  -z+1/2,-x+1/2,y+1/2
  -z+1/2,x+1/2,-y+1/2
  y+1/2,z+1/2,x+1/2
  -y+1/2,z+1/2,-x+1/2
  y+1/2,-z+1/2,-x+1/2
  -y+1/2,-z+1/2,x+1/2
  y+1/2,x+1/2,-z+1/2
  -y+1/2,-x+1/2,-z+1/2
  y+1/2,-x+1/2,z+1/2
  -y+1/2,x+1/2,z+1/2
  x+1/2,z+1/2,-y+1/2
  -x+1/2,z+1/2,y+1/2
  -x+1/2,-z+1/2,-y+1/2
  x+1/2,-z+1/2,y+1/2
  z+1/2,y+1/2,-x+1/2
  z+1/2,-y+1/2,x+1/2
  -z+1/2,y+1/2,x+1/2
  -z+1/2,-y+1/2,-x+1/2
  -x+1/2,-y+1/2,-z+1/2
  x+1/2,y+1/2,-z+1/2
  x+1/2,-y+1/2,z+1/2
  -x+1/2,y+1/2,z+1/2
  -z+1/2,-x+1/2,-y+1/2
  -z+1/2,x+1/2,y+1/2
  z+1/2,x+1/2,-y+1/2
  z+1/2,-x+1/2,y+1/2
  -y+1/2,-z+1/2,-x+1/2
  y+1/2,-z+1/2,x+1/2
  -y+1/2,z+1/2,x+1/2
  y+1/2,z+1/2,-x+1/2
  -y+1/2,-x+1/2,z+1/2
  y+1/2,x+1/2,z+1/2
  -y+1/2,x+1/2,-z+1/2
  y+1/2,-x+1/2,-z+1/2
  -x+1/2,-z+1/2,y+1/2
  x+1/2,-z+1/2,-y+1/2
  x+1/2,z+1/2,y+1/2
  -x+1/2,z+1/2,-y+1/2
  -z+1/2,-y+1/2,x+1/2
  -z+1/2,y+1/2,-x+1/2
  z+1/2,-y+1/2,-x+1/2
  z+1/2,y+1/2,x+1/2
_cell_length_a                    30.9840
_cell_length_b                    30.9840
_cell_length_c                    30.9840
_cell_angle_alpha                 90.0000
_cell_angle_beta                  90.0000
_cell_angle_gamma                 90.0000
loop_
_atom_site_label
_atom_site_type_symbol
_atom_site_fract_x
_atom_site_fract_y
_atom_site_fract_z
_atom_site_charge
N1	N	0.19313 	-0.37107 	0.13906 	-0.24
C2	C	0.17629 	-0.32854 	0.14532 	-0.037
C3	C	0.19082 	-0.29213 	0.11803 	0.257
O4	O	0.20754 	-0.29973 	0.08140 	-0.289
O5	O	0.18816 	-0.25339 	0.13080 	-0.234
N6	N	0.23149 	-0.46303 	0.10417 	-0.255
C7	C	0.19351 	-0.47717 	0.08643 	-0.056
O8	O	0.16993 	-0.41040 	0.05869 	-0.299
O9	O	0.12374 	-0.46185 	0.05981 	-0.229
C10	C	0.16164 	-0.44927 	0.06791 	0.268
H11	H	0.15206 	1.07648 	0.18766 	-0.111
H12	H	0.31552 	0.52518 	0.40123 	-0.006
H13	H	0.25255 	0.52518 	0.34913 	-0.006
In14	In	0.25000 	-0.39494 	0.10506 	1.145
C15	C	0.16999 	-0.39883 	0.16999 	-0.008
H16	H	0.19328 	-0.41296 	0.19328 	-0.011
O17	O	0.18097 	-0.06473 	0.18097 	-0.408
C18	C	0.25304 	-0.50000 	0.11507 	-0.018
H19	H	0.28484 	-0.50000 	0.12936 	-0.024
Mg20	Mg	0.17470 	0.00000 	0.17470 	1.45
O21	O	0.16891 	0.00000 	0.23967 	-0.438
O22	O	0.16820 	0.00000 	0.10976 	-0.451

