data_HIHGEM_clean_b
_audit_creation_date              2014-07-02
_audit_creation_method            'Materials Studio'
_symmetry_space_group_name_H-M    'CCCM'
_symmetry_Int_Tables_number       66
_symmetry_cell_setting            orthorhombic
loop_
_symmetry_equiv_pos_as_xyz
  x,y,z
  -x,-y,z
  -x,y,-z+1/2
  x,-y,-z+1/2
  -x,-y,-z
  x,y,-z
  x,-y,z+1/2
  -x,y,z+1/2
  x+1/2,y+1/2,z
  -x+1/2,-y+1/2,z
  -x+1/2,y+1/2,-z+1/2
  x+1/2,-y+1/2,-z+1/2
  -x+1/2,-y+1/2,-z
  x+1/2,y+1/2,-z
  x+1/2,-y+1/2,z+1/2
  -x+1/2,y+1/2,z+1/2
_cell_length_a                    18.7740
_cell_length_b                    29.7040
_cell_length_c                    24.8900
_cell_angle_alpha                 90.0000
_cell_angle_beta                  90.0000
_cell_angle_gamma                 90.0000
loop_
_atom_site_label
_atom_site_type_symbol
_atom_site_fract_x
_atom_site_fract_y
_atom_site_fract_z
_atom_site_charge
C1	C	0.161	0.108	0.0778	0.397
O2	O	0.2131	0.08885	0.05702	-0.504
C3	C	0.1254	0.08466	0.12372	-0.15
C4	C	0.0545	0.03609	0.20501	-0.112
C5	C	0.0604	0.09867	0.1419	0.003
H6	H	0.0394	0.1243	0.1273	0.011
O7	O	0.1348	0.14508	0.06341	-0.489
C8	C	0.1209	0.02351	0.1864	-0.061
H9	H	0.1425	-0.002	0.2008	0.011
C10	C	0.1567	0.04788	0.1466	0.005
H11	H	0.2019	0.039	0.1356	-0.008
C12	C	0.0255	0.07473	0.1822	-0.058
H13	H	-0.0186	0.0849	0.1943	0.011
C14	C	0.1779	0.28859	-0.075	0.346
C15	C	0.1362	0.30928	-0.12098	-0.078
C16	C	0.0582	0.34975	-0.20437	-0.172
C17	C	0.0787	0.28799	-0.1436	-0.05
H18	H	0.0656	0.2596	-0.1314	0.023
C19	C	0.0395	0.30825	-0.1846	0.001
H20	H	0.00E+00	0.2935	-0.1987	-0.01
C21	C	0.1151	0.37062	-0.1809	0.009
H22	H	0.1278	0.3992	-0.193	0.006
C23	C	0.1548	0.35125	-0.14	-0.055
H24	H	0.1936	0.3665	-0.1255	0.046
O25	O	0.1574	0.25073	-0.05975	-0.476
O26	O	0.2278	0.31093	-0.05499	-0.321
C27	C	0.0543	0.4194	-0.2962	-0.161
C28	C	0.1694	0.4952	-0.4166	0.21
C29	C	0.1289	0.4696	-0.3742	-0.054
C30	C	0.0546	0.4013	-0.3507	-0.025
C31	C	0.0899	0.4266	-0.389	0.006
C32	C	0.129	0.4763	-0.3219	-0.018
C33	C	0.0926	0.4526	-0.2835	0.012
O34	O	0.1664	0.4798	-0.4623	-0.205
O35	O	0.1362	0.5302	-0.4414	-0.187
H36	H	0.47328	0.86805	0.14031	-0.026
H37	H	0.41072	0.91453	0.06753	-0.047
H38	H	0.33774	1.00467	0.19605	-0.028
H39	H	0.40276	0.96321	0.26038	-0.023
Er40	Er	0.17687	0.19461	0	0.962
Er41	Er	0.26829	0.0417	0	0.664
Si42	Si	0.00E+00	0	0.25	0.216
Si43	Si	0.00E+00	0.38344	-0.25	0.379