# CIF file generated by openbabel 3.1.0, see https://openbabel.org
data_I
_chemical_name_common 'GULPIN_clean'
_cell_length_a 12.605
_cell_length_b 13.2711
_cell_length_c 13.2711
_cell_angle_alpha 94.6874
_cell_angle_beta 96.6319
_cell_angle_gamma 83.3681
_space_group_name_H-M_alt 'P 1'
_space_group_name_Hall 'P 1'
loop_
    _symmetry_equiv_pos_as_xyz
    x,y,z
loop_
    _atom_site_label
    _atom_site_type_symbol
    _atom_site_fract_x
    _atom_site_fract_y
    _atom_site_fract_z
    _atom_site_occupancy
    Zn1      Zn       0.17123    0.17273    0.72697    1.000
    Zn2      Zn       0.32877    0.72697    0.17273    1.000
    Zn3      Zn       0.82877    0.82727    0.27303    1.000
    Zn4      Zn       0.67123    0.27303    0.82727    1.000
    H1       H        0.40570    0.18660    0.71060    1.000
    H2       H        0.54170    0.11370    0.62350    1.000
    H3       H        0.33690    0.95230    0.45530    1.000
    H4       H        0.20450    0.03030    0.54590    1.000
    H5       H        0.98210    0.23190    0.57790    1.000
    H6       H        0.91470    0.35950    0.47990    1.000
    H7       H        0.14800    0.52100    0.60600    1.000
    H8       H        0.20940    0.38920    0.70360    1.000
    H9       H        0.05790    0.86820    0.70000    1.000
    H10      H        0.95780    0.73580    0.70160    1.000
    H11      H        0.70980    0.92760    0.77900    1.000
    H12      H        0.09430    0.71060    0.18660    1.000
    H13      H        0.95830    0.62350    0.11370    1.000
    H14      H        0.16310    0.45530    0.95230    1.000
    H15      H        0.29550    0.54590    0.03030    1.000
    H16      H        0.51790    0.57790    0.23190    1.000
    H17      H        0.58530    0.47990    0.35950    1.000
    H18      H        0.35200    0.60600    0.52100    1.000
    H19      H        0.29060    0.70360    0.38920    1.000
    H20      H        0.44210    0.70000    0.86820    1.000
    H21      H        0.54220    0.70160    0.73580    1.000
    H22      H        0.79020    0.77900    0.92760    1.000
    H23      H        0.59430    0.81340    0.28940    1.000
    H24      H        0.45830    0.88630    0.37650    1.000
    H25      H        0.66310    0.04770    0.54470    1.000
    H26      H        0.79550    0.96970    0.45410    1.000
    H27      H        0.01790    0.76810    0.42210    1.000
    H28      H        0.08530    0.64050    0.52010    1.000
    H29      H        0.85200    0.47900    0.39400    1.000
    H30      H        0.79060    0.61080    0.29640    1.000
    H31      H        0.94210    0.13180    0.30000    1.000
    H32      H        0.04220    0.26420    0.29840    1.000
    H33      H        0.29020    0.07240    0.22100    1.000
    H34      H        0.90570    0.28940    0.81340    1.000
    H35      H        0.04170    0.37650    0.88630    1.000
    H36      H        0.83690    0.54470    0.04770    1.000
    H37      H        0.70450    0.45410    0.96970    1.000
    H38      H        0.48210    0.42210    0.76810    1.000
    H39      H        0.41470    0.52010    0.64050    1.000
    H40      H        0.64800    0.39400    0.47900    1.000
    H41      H        0.70940    0.29640    0.61080    1.000
    H42      H        0.55790    0.30000    0.13180    1.000
    H43      H        0.45780    0.29840    0.26420    1.000
    H44      H        0.20980    0.22100    0.07240    1.000
    C1       C        0.39080    0.13710    0.65890    1.000
    C2       C        0.47320    0.09370    0.60610    1.000
    C3       C        0.45710    0.02290    0.52950    1.000
    C4       C        0.35370    0.00010    0.50830    1.000
    C5       C        0.27430    0.04660    0.56380    1.000
    C6       C        0.01630    0.29090    0.58410    1.000
    C7       C        0.97530    0.36750    0.52570    1.000
    C8       C        0.02090    0.45700    0.53220    1.000
    C9       C        0.11210    0.46300    0.59960    1.000
    C10      C        0.14900    0.38300    0.65700    1.000
    C11      C        0.01420    0.06750    0.73890    1.000
    C12      C        0.94460    0.98220    0.73320    1.000
    C13      C        0.98690    0.88170    0.71430    1.000
    C14      C        0.92700    0.80170    0.71630    1.000
    C15      C        0.82280    0.81710    0.73930    1.000
    C16      C        0.77960    0.91530    0.76110    1.000
    C17      C        0.83960    0.99730    0.75650    1.000
    C18      C        0.78340    0.10280    0.76840    1.000
    C19      C        0.81300    0.62550    0.73470    1.000
    C20      C        0.10920    0.65890    0.13710    1.000
    C21      C        0.02680    0.60610    0.09370    1.000
    C22      C        0.04290    0.52950    0.02290    1.000
    C23      C        0.14630    0.50830    0.00010    1.000
    C24      C        0.22570    0.56380    0.04660    1.000
    C25      C        0.48370    0.58410    0.29090    1.000
    C26      C        0.52470    0.52570    0.36750    1.000
    C27      C        0.47910    0.53220    0.45700    1.000
    C28      C        0.38790    0.59960    0.46300    1.000
    C29      C        0.35100    0.65700    0.38300    1.000
    C30      C        0.48580    0.73890    0.06750    1.000
    C31      C        0.55540    0.73320    0.98220    1.000
    C32      C        0.51310    0.71430    0.88170    1.000
    C33      C        0.57300    0.71630    0.80170    1.000
    C34      C        0.67720    0.73930    0.81710    1.000
    C35      C        0.72040    0.76110    0.91530    1.000
    C36      C        0.66040    0.75650    0.99730    1.000
    C37      C        0.71660    0.76840    0.10280    1.000
    C38      C        0.68700    0.73470    0.62550    1.000
    C39      C        0.60920    0.86290    0.34110    1.000
    C40      C        0.52680    0.90630    0.39390    1.000
    C41      C        0.54290    0.97710    0.47050    1.000
    C42      C        0.64630    0.99990    0.49170    1.000
    C43      C        0.72570    0.95340    0.43620    1.000
    C44      C        0.98370    0.70910    0.41590    1.000
    C45      C        0.02470    0.63250    0.47430    1.000
    C46      C        0.97910    0.54300    0.46780    1.000
    C47      C        0.88790    0.53700    0.40040    1.000
    C48      C        0.85100    0.61700    0.34300    1.000
    C49      C        0.98580    0.93250    0.26110    1.000
    C50      C        0.05540    0.01780    0.26680    1.000
    C51      C        0.01310    0.11830    0.28570    1.000
    C52      C        0.07300    0.19830    0.28370    1.000
    C53      C        0.17720    0.18290    0.26070    1.000
    C54      C        0.22040    0.08470    0.23890    1.000
    C55      C        0.16040    0.00270    0.24350    1.000
    C56      C        0.21660    0.89720    0.23160    1.000
    C57      C        0.18700    0.37450    0.26530    1.000
    C58      C        0.89080    0.34110    0.86290    1.000
    C59      C        0.97320    0.39390    0.90630    1.000
    C60      C        0.95710    0.47050    0.97710    1.000
    C61      C        0.85370    0.49170    0.99990    1.000
    C62      C        0.77430    0.43620    0.95340    1.000
    C63      C        0.51630    0.41590    0.70910    1.000
    C64      C        0.47530    0.47430    0.63250    1.000
    C65      C        0.52090    0.46780    0.54300    1.000
    C66      C        0.61210    0.40040    0.53700    1.000
    C67      C        0.64900    0.34300    0.61700    1.000
    C68      C        0.51420    0.26110    0.93250    1.000
    C69      C        0.44460    0.26680    0.01780    1.000
    C70      C        0.48690    0.28570    0.11830    1.000
    C71      C        0.42700    0.28370    0.19830    1.000
    C72      C        0.32280    0.26070    0.18290    1.000
    C73      C        0.27960    0.23890    0.08470    1.000
    C74      C        0.33960    0.24350    0.00270    1.000
    C75      C        0.28340    0.23160    0.89720    1.000
    C76      C        0.31300    0.26530    0.37450    1.000
    C77      C        0.75000    0.73080    0.73080    1.000
    C78      C        0.25000    0.26920    0.26920    1.000
    N1       N        0.29220    0.11335    0.64135    1.000
    N2       N        0.10370    0.29595    0.65045    1.000
    N3       N        0.20780    0.64135    0.11335    1.000
    N4       N        0.39630    0.65045    0.29595    1.000
    N5       N        0.70780    0.88665    0.35865    1.000
    N6       N        0.89630    0.70405    0.34955    1.000
    N7       N        0.79220    0.35865    0.88665    1.000
    N8       N        0.60370    0.34955    0.70405    1.000
    O1       O        0.99890    0.14286    0.80004    1.000
    O2       O        0.07760    0.05861    0.67873    1.000
    O3       O        0.78440    0.16156    0.70406    1.000
    O4       O        0.73860    0.12768    0.84216    1.000
    O5       O        0.50110    0.80004    0.14286    1.000
    O6       O        0.42240    0.67873    0.05861    1.000
    O7       O        0.71560    0.70406    0.16156    1.000
    O8       O        0.76140    0.84216    0.12768    1.000
    O9       O        0.00110    0.85714    0.19996    1.000
    O10      O        0.92240    0.94139    0.32127    1.000
    O11      O        0.21560    0.83844    0.29594    1.000
    O12      O        0.26140    0.87232    0.15784    1.000
    O13      O        0.49890    0.19996    0.85714    1.000
    O14      O        0.57760    0.32127    0.94139    1.000
    O15      O        0.28440    0.29594    0.83844    1.000
    O16      O        0.23860    0.15784    0.87232    1.000
    F1       F        0.89078    0.62421    0.81367    1.000
    F2       F        0.86410    0.59699    0.65243    1.000
    F3       F        0.75212    0.55441    0.74665    1.000
    F4       F        0.60922    0.81367    0.62421    1.000
    F5       F        0.63590    0.65243    0.59699    1.000
    F6       F        0.74788    0.74665    0.55441    1.000
    F7       F        0.10922    0.37579    0.18633    1.000
    F8       F        0.13590    0.40301    0.34757    1.000
    F9       F        0.24788    0.44559    0.25335    1.000
    F10      F        0.39078    0.18633    0.37579    1.000
    F11      F        0.36410    0.34757    0.40301    1.000
    F12      F        0.25212    0.25335    0.44559    1.000
