# CIF file generated by openbabel 3.1.0, see https://openbabel.org
data_I
_chemical_name_common 'ja512973b_si_004_tobacco'
_cell_length_a 27.9293
_cell_length_b 27.9293
_cell_length_c 27.9293
_cell_angle_alpha 90
_cell_angle_beta 90
_cell_angle_gamma 90
_space_group_name_H-M_alt 'P 1'
_space_group_name_Hall 'P 1'
loop_
    _symmetry_equiv_pos_as_xyz
    x,y,z
loop_
    _atom_site_label
    _atom_site_type_symbol
    _atom_site_fract_x
    _atom_site_fract_y
    _atom_site_fract_z
    _atom_site_occupancy
    X1       C        0.54334    0.00484    0.60106    1.000
    C2       C        0.49952    0.00315    0.62539    1.000
    X3       C        0.45589    0.00241    0.60077    1.000
    C4       C        0.45576    0.00290    0.55005    1.000
    C5       C        0.49985    0.00461    0.52472    1.000
    C6       C        0.54381    0.00557    0.55030    1.000
    C7       C        0.58701    0.00612    0.52444    1.000
    C8       C        0.58718    0.00594    0.47453    1.000
    C9       C        0.54415    0.00535    0.44839    1.000
    C10      C        0.49999    0.00473    0.47369    1.000
    C11      C        0.41276    0.00111    0.52404    1.000
    C12      C        0.41287    0.00101    0.47414    1.000
    C13      C        0.45598    0.00338    0.44814    1.000
    X14      C        0.45641    0.00305    0.39730    1.000
    C15      C        0.50039    0.00286    0.37309    1.000
    X16      C        0.54408    0.00415    0.39765    1.000
    H17      H        0.62124    0.00617    0.54260    1.000
    H18      H        0.62152    0.00584    0.45659    1.000
    H19      H        0.37852    0.99925    0.54212    1.000
    H20      H        0.37866    0.99839    0.45621    1.000
    H21      H        0.49935    0.00270    0.66423    1.000
    H22      H        0.50066    0.00241    0.33425    1.000
    X23      C        0.54297    0.60715    0.99764    1.000
    C24      C        0.49915    0.63149    0.99767    1.000
    X25      C        0.45540    0.60705    0.99679    1.000
    C26      C        0.45517    0.55630    0.99677    1.000
    C27      C        0.49925    0.53090    0.99729    1.000
    C28      C        0.54330    0.55637    0.99744    1.000
    C29      C        0.58640    0.53038    0.99828    1.000
    C30      C        0.58644    0.48055    0.99794    1.000
    C31      C        0.54337    0.45449    0.99837    1.000
    C32      C        0.49929    0.47989    0.99810    1.000
    C33      C        0.41210    0.53026    0.99713    1.000
    C34      C        0.41214    0.48042    0.99722    1.000
    C35      C        0.45524    0.45443    0.99823    1.000
    X36      C        0.45554    0.40367    0.99843    1.000
    C37      C        0.49936    0.37931    0.99792    1.000
    X38      C        0.54313    0.40372    0.99817    1.000
    H39      H        0.62072    0.54824    0.99926    1.000
    H40      H        0.62080    0.46273    0.99733    1.000
    H41      H        0.37775    0.54811    0.99747    1.000
    H42      H        0.37782    0.46253    0.99632    1.000
    H43      H        0.49910    0.67034    0.99765    1.000
    H44      H        0.49939    0.34046    0.99808    1.000
    X45      C        0.00139    0.40355    0.45466    1.000
    C46      C        0.00150    0.37925    0.49850    1.000
    X47      C        0.00106    0.40370    0.54227    1.000
    C48      C        0.00104    0.45447    0.54244    1.000
    C49      C        0.00045    0.47983    0.49834    1.000
    C50      C        0.00099    0.45433    0.45431    1.000
    C51      C        0.00288    0.48029    0.41123    1.000
    C52      C        0.00274    0.53013    0.41115    1.000
    C53      C        0.00085    0.55621    0.45416    1.000
    C54      C        0.00051    0.53085    0.49827    1.000
    C55      C        0.00341    0.48055    0.58543    1.000
    C56      C        0.00367    0.53039    0.58535    1.000
    C57      C        0.00142    0.55636    0.54229    1.000
    X58      C        0.00186    0.60713    0.54195    1.000
    C59      C        0.00181    0.63143    0.49809    1.000
    X60      C        0.00108    0.60697    0.45434    1.000
    H61      H        0.00524    0.46238    0.37699    1.000
    H62      H        0.00498    0.54796    0.37686    1.000
    H63      H        0.00597    0.46272    0.61970    1.000
    H64      H        0.00641    0.54829    0.61957    1.000
    H65      H        0.00138    0.34040    0.49855    1.000
    H66      H        0.00179    0.67028    0.49802    1.000
    O67      O        0.87784    0.00611    0.93630    1.000
    O68      O        0.12063    0.00397    0.93517    1.000
    O69      O        0.99768    0.06780    0.87695    1.000
    O70      O        0.00104    0.94269    0.87706    1.000
    O71      O        0.00074    0.88383    0.93542    1.000
    O72      O        0.99713    0.12670    0.93524    1.000
    O73      O        0.06187    0.00346    0.87663    1.000
    O74      O        0.93613    0.00754    0.87727    1.000
    Zr75     Zr       0.99919    0.00533    0.91992    1.000
    O76      O        0.04690    0.95770    0.95052    1.000
    O77      O        0.95160    0.05289    0.95091    1.000
    X78      C        0.89152    0.00758    0.89156    1.000
    X79      C        0.10659    0.00286    0.89054    1.000
    X80      C        0.99660    0.11261    0.89049    1.000
    X81      C        0.00179    0.89787    0.89068    1.000
    H82      H        0.06680    0.07311    0.93035    1.000
    O83      O        0.04633    0.05263    0.95094    1.000
    H84      H        0.93174    0.93756    0.93081    1.000
    O85      O        0.95226    0.95806    0.95132    1.000
    O86      O        0.12107    0.00707    0.06019    1.000
    O87      O        0.87850    0.00282    0.06159    1.000
    O88      O        0.06233    0.12681    0.99994    1.000
    O89      O        0.06253    0.88399    0.99609    1.000
    O90      O        0.93658    0.88382    0.00004    1.000
    O91      O        0.93628    0.12663    0.99699    1.000
    O92      O        0.00202    0.06807    0.11951    1.000
    O93      O        0.99868    0.94295    0.11969    1.000
    O94      O        0.00088    0.12689    0.06115    1.000
    O95      O        0.99787    0.88401    0.06142    1.000
    O96      O        0.12062    0.06795    0.99928    1.000
    O97      O        0.87816    0.06762    0.99729    1.000
    O98      O        0.87833    0.94265    0.00036    1.000
    O99      O        0.12075    0.94296    0.99634    1.000
    O100     O        0.06313    0.00721    0.11931    1.000
    O101     O        0.93728    0.00451    0.12011    1.000
    Zr102    Zr       0.07771    0.00543    0.99793    1.000
    Zr103    Zr       0.92122    0.00513    0.99868    1.000
    Zr104    Zr       0.99933    0.08392    0.99828    1.000
    Zr105    Zr       0.99952    0.92675    0.99833    1.000
    Zr106    Zr       0.99991    0.00545    0.07670    1.000
    O107     O        0.95221    0.95763    0.04623    1.000
    O108     O        0.04724    0.05312    0.04565    1.000
    X109     C        0.10783    0.00792    0.10510    1.000
    X110     C        0.89255    0.00290    0.10626    1.000
    X111     C        0.10709    0.11276    0.00038    1.000
    X112     C        0.10725    0.89813    0.99537    1.000
    X113     C        0.89183    0.89781    0.00089    1.000
    X114     C        0.89154    0.11250    0.99650    1.000
    X115     C        0.00232    0.11288    0.10589    1.000
    X116     C        0.99757    0.89812    0.10616    1.000
    H117     H        0.93203    0.07292    0.06625    1.000
    O118     O        0.95250    0.05247    0.04565    1.000
    H119     H        0.06749    0.93773    0.06567    1.000
    O120     O        0.04685    0.95819    0.04525    1.000
    C121     C        0.33111    0.00510    0.30727    1.000
    C122     C        0.36378    0.96712    0.30451    1.000
    C123     C        0.40395    0.96608    0.33447    1.000
    X124     C        0.41196    0.00293    0.36779    1.000
    C125     C        0.37911    0.04101    0.37040    1.000
    C126     C        0.33881    0.04195    0.34047    1.000
    C127     C        0.29082    0.00686    0.27478    1.000
    C128     C        0.25797    0.00791    0.24654    1.000
    C129     C        0.21991    0.00865    0.21144    1.000
    C130     C        0.23106    0.00471    0.16276    1.000
    C131     C        0.19467    0.00477    0.12835    1.000
    X132     C        0.14626    0.00869    0.14200    1.000
    C133     C        0.13532    0.01280    0.19108    1.000
    C134     C        0.17191    0.01281    0.22551    1.000
    H135     H        0.35851    0.93858    0.27877    1.000
    H136     H        0.42907    0.93669    0.33142    1.000
    H137     H        0.38504    0.07024    0.39518    1.000
    H138     H        0.31405    0.07171    0.34279    1.000
    H139     H        0.26798    0.00138    0.15133    1.000
    H140     H        0.20458    0.00139    0.09102    1.000
    H141     H        0.09853    0.01598    0.20291    1.000
    H142     H        0.16274    0.01590    0.26307    1.000
    C143     C        0.66921    0.00358    0.30755    1.000
    C144     C        0.64143    0.96211    0.31281    1.000
    C145     C        0.60134    0.96211    0.34295    1.000
    X146     C        0.58870    0.00348    0.36859    1.000
    C147     C        0.61687    0.04488    0.36369    1.000
    C148     C        0.65690    0.04491    0.33333    1.000
    C149     C        0.70930    0.00389    0.27464    1.000
    C150     C        0.74227    0.00366    0.24646    1.000
    C151     C        0.78112    0.00295    0.21210    1.000
    C152     C        0.78675    0.96373    0.18122    1.000
    C153     C        0.82327    0.96361    0.14679    1.000
    X154     C        0.85512    0.00233    0.14344    1.000
    C155     C        0.84990    0.04126    0.17481    1.000
    C156     C        0.81284    0.04175    0.20870    1.000
    H157     H        0.65038    0.92993    0.29309    1.000
    H158     H        0.57984    0.92998    0.34599    1.000
    H159     H        0.60730    0.07731    0.38267    1.000
    H160     H        0.67784    0.07734    0.32945    1.000
    H161     H        0.76270    0.93339    0.18353    1.000
    H162     H        0.82692    0.93320    0.12298    1.000
    H163     H        0.87374    0.07176    0.17222    1.000
    H164     H        0.80868    0.07253    0.23193    1.000
    C165     C        0.66832    0.00737    0.69093    1.000
    C166     C        0.64111    0.96545    0.68645    1.000
    C167     C        0.60096    0.96445    0.65647    1.000
    X168     C        0.58775    0.00527    0.63029    1.000
    C169     C        0.61533    0.04713    0.63444    1.000
    C170     C        0.65542    0.04817    0.66463    1.000
    C171     C        0.70845    0.00869    0.72362    1.000
    C172     C        0.74142    0.00905    0.75171    1.000
    C173     C        0.78012    0.00859    0.78609    1.000
    C174     C        0.78680    0.96856    0.81561    1.000
    C175     C        0.82323    0.96834    0.85003    1.000
    X176     C        0.85386    0.00786    0.85477    1.000
    C177     C        0.84763    0.04770    0.82478    1.000
    C178     C        0.81064    0.04821    0.79083    1.000
    H179     H        0.65059    0.93369    0.70661    1.000
    H180     H        0.57992    0.93197    0.65392    1.000
    H181     H        0.60529    0.07911    0.61495    1.000
    H182     H        0.67595    0.08091    0.66795    1.000
    H183     H        0.76368    0.93760    0.81220    1.000
    H184     H        0.82783    0.93720    0.87272    1.000
    H185     H        0.87070    0.07867    0.82837    1.000
    H186     H        0.80564    0.07957    0.76855    1.000
    C187     C        0.33055    0.00027    0.69023    1.000
    C188     C        0.35139    0.95722    0.67488    1.000
    C189     C        0.39158    0.95785    0.64479    1.000
    X190     C        0.41127    0.00155    0.62963    1.000
    C191     C        0.39003    0.04457    0.64457    1.000
    C192     C        0.34988    0.04393    0.67467    1.000
    C193     C        0.29040    0.99981    0.72306    1.000
    C194     C        0.25729    0.99990    0.75106    1.000
    C195     C        0.21820    0.00060    0.78513    1.000
    C196     C        0.19528    0.95795    0.79858    1.000
    C197     C        0.15823    0.95870    0.83249    1.000
    X198     C        0.14398    0.00208    0.85345    1.000
    C199     C        0.16680    0.04471    0.83987    1.000
    C200     C        0.20360    0.04399    0.80577    1.000
    H201     H        0.33698    0.92320    0.68670    1.000
    H202     H        0.40779    0.92435    0.63388    1.000
    H203     H        0.40505    0.07858    0.63352    1.000
    H204     H        0.33433    0.07749    0.68634    1.000
    H205     H        0.20630    0.92410    0.78317    1.000
    H206     H        0.14116    0.92545    0.84289    1.000
    H207     H        0.15622    0.07846    0.85580    1.000
    H208     H        0.22092    0.07723    0.79578    1.000
    C209     C        0.32999    0.31447    0.00106    1.000
    C210     C        0.33886    0.34634    0.03881    1.000
    C211     C        0.37933    0.37600    0.03778    1.000
    X212     C        0.41110    0.37436    0.99876    1.000
    C213     C        0.40196    0.34233    0.96108    1.000
    C214     C        0.36163    0.31267    0.96219    1.000
    C215     C        0.28956    0.28230    0.00263    1.000
    C216     C        0.25667    0.25419    0.00315    1.000
    C217     C        0.21869    0.21912    0.00288    1.000
    C218     C        0.17147    0.23212    0.01379    1.000
    C219     C        0.13493    0.19768    0.01289    1.000
    X220     C        0.14528    0.14971    0.00130    1.000
    C221     C        0.19289    0.13712    0.99050    1.000
    C222     C        0.22918    0.17156    0.99119    1.000
    H223     H        0.31488    0.34783    0.06926    1.000
    H224     H        0.38620    0.39985    0.06757    1.000
    H225     H        0.42631    0.34011    0.93098    1.000
    H226     H        0.35542    0.28793    0.93297    1.000
    H227     H        0.16288    0.26881    0.02297    1.000
    H228     H        0.09874    0.20850    0.02164    1.000
    H229     H        0.20214    0.10066    0.98107    1.000
    H230     H        0.26550    0.16105    0.98248    1.000
    C231     C        0.32983    0.69618    0.99432    1.000
    C232     C        0.36078    0.69695    0.03378    1.000
    C233     C        0.40111    0.66729    0.03482    1.000
    X234     C        0.41091    0.63626    0.99649    1.000
    C235     C        0.37979    0.63554    0.95693    1.000
    C236     C        0.33935    0.66525    0.95595    1.000
    C237     C        0.28949    0.72847    0.99282    1.000
    C238     C        0.25666    0.75666    0.99239    1.000
    C239     C        0.21871    0.79177    0.99282    1.000
    C240     C        0.22842    0.83838    0.00842    1.000
    C241     C        0.19217    0.87287    0.00908    1.000
    X242     C        0.14539    0.86121    0.99442    1.000
    C243     C        0.13576    0.81420    0.97900    1.000
    C244     C        0.17228    0.77975    0.97804    1.000
    H245     H        0.35405    0.72093    0.06352    1.000
    H246     H        0.42495    0.66875    0.06537    1.000
    H247     H        0.38718    0.61243    0.92669    1.000
    H248     H        0.31590    0.66454    0.92506    1.000
    H249     H        0.26409    0.84809    0.02019    1.000
    H250     H        0.20069    0.90857    0.02162    1.000
    H251     H        0.10020    0.80423    0.96719    1.000
    H252     H        0.16432    0.74383    0.96577    1.000
    C253     C        0.66866    0.69619    0.99881    1.000
    C254     C        0.63633    0.69733    0.03713    1.000
    C255     C        0.59594    0.66775    0.03696    1.000
    X256     C        0.58740    0.63647    0.99852    1.000
    C257     C        0.61981    0.63554    0.96001    1.000
    C258     C        0.66035    0.66511    0.96027    1.000
    C259     C        0.70917    0.72830    0.99853    1.000
    C260     C        0.74212    0.75635    0.99885    1.000
    C261     C        0.78015    0.79136    0.99964    1.000
    C262     C        0.76875    0.84011    0.00092    1.000
    C263     C        0.80504    0.87453    0.00173    1.000
    X264     C        0.85358    0.86082    0.00124    1.000
    C265     C        0.86478    0.81164    0.00017    1.000
    C266     C        0.82827    0.77718    0.99937    1.000
    H267     H        0.64207    0.72150    0.06692    1.000
    H268     H        0.57107    0.66944    0.06667    1.000
    H269     H        0.61341    0.61228    0.92964    1.000
    H270     H        0.68485    0.66416    0.93022    1.000
    H271     H        0.73168    0.85158    0.00121    1.000
    H272     H        0.79494    0.91196    0.00253    1.000
    H273     H        0.90169    0.79977    0.99971    1.000
    H274     H        0.83758    0.73954    0.99845    1.000
    C275     C        0.66877    0.31462    0.99762    1.000
    C276     C        0.63681    0.31375    0.95900    1.000
    C277     C        0.59645    0.34338    0.95896    1.000
    X278     C        0.58760    0.37447    0.99749    1.000
    C279     C        0.61969    0.37518    0.03627    1.000
    C280     C        0.66019    0.34555    0.03622    1.000
    C281     C        0.70918    0.28237    0.99814    1.000
    C282     C        0.74203    0.25421    0.99802    1.000
    C283     C        0.77998    0.21911    0.99746    1.000
    C284     C        0.76850    0.17036    0.99652    1.000
    C285     C        0.80475    0.13586    0.99588    1.000
    X286     C        0.85331    0.14952    0.99618    1.000
    C287     C        0.86457    0.19868    0.99692    1.000
    C288     C        0.82813    0.23321    0.99756    1.000
    H289     H        0.64278    0.28971    0.92914    1.000
    H290     H        0.57184    0.34186    0.92903    1.000
    H291     H        0.61304    0.39830    0.06670    1.000
    H292     H        0.68442    0.34631    0.06650    1.000
    H293     H        0.73142    0.15895    0.99634    1.000
    H294     H        0.79461    0.09845    0.99531    1.000
    H295     H        0.90149    0.21052    0.99721    1.000
    H296     H        0.83750    0.27084    0.99821    1.000
    C297     C        0.00230    0.31416    0.32917    1.000
    C298     C        0.96418    0.34586    0.33708    1.000
    C299     C        0.96406    0.37559    0.37751    1.000
    X300     C        0.00228    0.37419    0.41024    1.000
    C301     C        0.04035    0.34235    0.40205    1.000
    C302     C        0.04039    0.31263    0.36175    1.000
    C303     C        0.00186    0.28195    0.28873    1.000
    C304     C        0.00208    0.25392    0.25577    1.000
    C305     C        0.00288    0.21911    0.21754    1.000
    C306     C        0.98908    0.23173    0.17099    1.000
    C307     C        0.98950    0.19743    0.13434    1.000
    X308     C        0.00342    0.14993    0.14392    1.000
    C309     C        0.01749    0.13775    0.19076    1.000
    C310     C        0.01732    0.17210    0.22718    1.000
    H311     H        0.93433    0.34717    0.31235    1.000
    H312     H        0.93398    0.39930    0.38360    1.000
    H313     H        0.06988    0.34033    0.42712    1.000
    H314     H        0.06990    0.28804    0.35628    1.000
    H315     H        0.97771    0.26796    0.16308    1.000
    H316     H        0.97815    0.20787    0.09876    1.000
    H317     H        0.02879    0.10165    0.19930    1.000
    H318     H        0.02829    0.16190    0.26297    1.000
    C319     C        0.99831    0.31465    0.66796    1.000
    C320     C        0.96119    0.34739    0.65962    1.000
    C321     C        0.96233    0.37703    0.61915    1.000
    X322     C        0.00083    0.37450    0.58681    1.000
    C323     C        0.03794    0.34166    0.59547    1.000
    C324     C        0.03671    0.31202    0.63582    1.000
    C325     C        0.99645    0.28241    0.70833    1.000
    C326     C        0.99558    0.25425    0.74117    1.000
    C327     C        0.99540    0.21911    0.77908    1.000
    C328     C        0.98159    0.23150    0.82571    1.000
    C329     C        0.98200    0.19699    0.86220    1.000
    X330     C        0.99594    0.14956    0.85235    1.000
    C331     C        0.00959    0.13754    0.80534    1.000
    C332     C        0.00944    0.17206    0.76913    1.000
    H333     H        0.93111    0.34955    0.68401    1.000
    H334     H        0.93297    0.40152    0.61269    1.000
    H335     H        0.06766    0.33877    0.57073    1.000
    H336     H        0.06546    0.28663    0.64163    1.000
    H337     H        0.97053    0.26777    0.83387    1.000
    H338     H        0.97102    0.20730    0.89793    1.000
    H339     H        0.02095    0.10151    0.79659    1.000
    H340     H        0.02043    0.16204    0.73329    1.000
    C341     C        0.00281    0.69655    0.66744    1.000
    C342     C        0.96495    0.66449    0.65979    1.000
    C343     C        0.96483    0.63477    0.61936    1.000
    X344     C        0.00281    0.63651    0.58637    1.000
    C345     C        0.04064    0.66871    0.59431    1.000
    C346     C        0.04066    0.69844    0.63460    1.000
    C347     C        0.00231    0.72878    0.70787    1.000
    C348     C        0.00243    0.75681    0.74084    1.000
    C349     C        0.00306    0.79161    0.77908    1.000
    C350     C        0.98833    0.77917    0.82541    1.000
    C351     C        0.98851    0.81348    0.86205    1.000
    X352     C        0.00307    0.86082    0.85267    1.000
    C353     C        0.01809    0.87282    0.80609    1.000
    C354     C        0.01819    0.83846    0.76969    1.000
    H355     H        0.93527    0.66291    0.68472    1.000
    H356     H        0.93492    0.61079    0.61347    1.000
    H357     H        0.06998    0.67100    0.56905    1.000
    H358     H        0.06997    0.72331    0.63987    1.000
    H359     H        0.97641    0.74307    0.83313    1.000
    H360     H        0.97644    0.80320    0.89744    1.000
    H361     H        0.02997    0.90879    0.79778    1.000
    H362     H        0.02990    0.84851    0.73410    1.000
    C363     C        0.99850    0.69602    0.32866    1.000
    C364     C        0.96094    0.66389    0.33739    1.000
    C365     C        0.96201    0.63422    0.37784    1.000
    X366     C        0.00086    0.63616    0.40980    1.000
    C367     C        0.03842    0.66837    0.40076    1.000
    C368     C        0.03728    0.69801    0.36041    1.000
    C369     C        0.99677    0.72830    0.28832    1.000
    C370     C        0.99605    0.75649    0.25549    1.000
    C371     C        0.99607    0.79163    0.21758    1.000
    C372     C        0.98207    0.77933    0.17098    1.000
    C373     C        0.98264    0.81382    0.13449    1.000
    X374     C        0.99692    0.86116    0.14430    1.000
    C375     C        0.01077    0.87310    0.19126    1.000
    C376     C        0.01047    0.83858    0.22749    1.000
    H377     H        0.93058    0.66223    0.31331    1.000
    H378     H        0.93234    0.61020    0.38461    1.000
    H379     H        0.06843    0.67077    0.42520    1.000
    H380     H        0.06638    0.72292    0.35429    1.000
    H381     H        0.97071    0.74314    0.16286    1.000
    H382     H        0.97146    0.80359    0.09880    1.000
    H383     H        0.02238    0.90906    0.19998    1.000
    H384     H        0.02159    0.84853    0.26330    1.000
